
 *** ANSYS - ENGINEERING ANALYSIS SYSTEM  RELEASE Release 17.1     17.1     ***
 ANSYS Multiphysics                                
 00000000  VERSION=WINDOWS x64   17:16:10  JUN 12, 2017 CP=     16.156

 capacitance_calc                                                              



          ***** ANSYS ANALYSIS DEFINITION (PREP7) *****


 ***** ROUTINE COMPLETED *****  CP =        16.156


