
 *** ANSYS - ENGINEERING ANALYSIS SYSTEM  RELEASE Release 17.1     17.1     ***
 ANSYS Multiphysics                                
 00000000  VERSION=WINDOWS x64   21:52:40  JUN 13, 2017 CP=     21.094

 capacitance_calc                                                              



          ***** ANSYS ANALYSIS DEFINITION (PREP7) *****


 ***** ROUTINE COMPLETED *****  CP =        21.094


