
 *** ANSYS - ENGINEERING ANALYSIS SYSTEM  RELEASE Release 17.1     17.1     ***
 ANSYS Multiphysics                                
 00000000  VERSION=WINDOWS x64   14:45:14  JUN 11, 2017 CP=     27.109

 capacitance_calc                                                              



          ***** ANSYS ANALYSIS DEFINITION (PREP7) *****


 ***** ROUTINE COMPLETED *****  CP =        27.109


